Version 4
SHEET 1 2096 680
WIRE 96 128 -80 128
WIRE -80 192 -80 128
WIRE 96 208 64 208
WIRE 64 224 64 208
WIRE 96 256 96 208
WIRE 144 256 96 256
WIRE 144 272 144 256
WIRE -80 336 -80 272
WIRE -48 336 -80 336
WIRE 64 336 64 320
WIRE 64 336 -48 336
WIRE 144 336 64 336
WIRE -48 368 -48 336
FLAG -48 368 0
FLAG 144 256 SIG
SYMBOL res 80 112 R0
SYMATTR InstName R2
SYMATTR Value {r_pullup}
SYMBOL cap 128 272 R0
SYMATTR InstName C1
SYMATTR Value 10µ
SYMBOL voltage -80 176 R0
SYMATTR InstName V1
SYMATTR Value 3.3
SYMATTR Value2 AC 3.3
SYMBOL Vishay_Thermistors/NTCLE100E3104_B0 64 272 R90
SYMATTR InstName U2
TEXT -24 416 Left 2 !.step TEMP 25 300 5\n.param r_pullup 4.7k\n;.step param r_pullup list 1k 4.7k 10k
TEXT -24 504 Left 2 !.ac dec 10 .1 1000\n;.op
